Version 4
SHEET 1 880 680
WIRE 32 128 0 128
WIRE 160 128 96 128
WIRE 272 128 160 128
WIRE 368 128 272 128
WIRE 160 144 160 128
WIRE 272 144 272 128
WIRE 0 240 0 208
WIRE 160 240 160 208
WIRE 272 240 272 224
FLAG 272 240 0
FLAG 368 128 output
FLAG 160 240 0
FLAG 0 240 0
SYMBOL diode 32 144 R270
WINDOW 0 32 32 VTop 2
WINDOW 3 0 32 VBottom 2
SYMATTR InstName D1
SYMBOL cap 144 144 R0
SYMATTR InstName C1
SYMATTR Value 100µ
SYMBOL res 256 128 R0
SYMATTR InstName R1
SYMATTR Value 50k
SYMBOL voltage 0 112 R0
WINDOW 123 24 124 Left 2
WINDOW 39 0 0 Left 0
WINDOW 0 -11 2 Left 2
WINDOW 3 -231 114 Left 2
SYMATTR Value2 AC 1.5 0
SYMATTR InstName V1
SYMATTR Value SINE(1.6 1.5 366)
