Version 4
SHEET 1 880 680
WIRE 0 80 0 48
WIRE 240 144 240 128
WIRE 208 160 160 160
WIRE 384 176 272 176
WIRE 432 176 384 176
WIRE -144 192 -304 192
WIRE 0 192 0 160
WIRE 0 192 -80 192
WIRE 208 192 0 192
WIRE -304 208 -304 192
WIRE 0 240 0 192
WIRE 160 272 160 160
WIRE 192 272 160 272
WIRE 384 272 384 176
WIRE 384 272 272 272
WIRE 160 288 160 272
WIRE -304 320 -304 288
WIRE 0 352 0 320
WIRE 160 400 160 368
WIRE -304 416 -304 400
WIRE 160 496 160 464
WIRE -432 560 -432 528
FLAG 160 496 0
FLAG -304 416 0
FLAG -432 448 5V
FLAG -432 560 0
FLAG 432 176 Vout
IOPIN 432 176 Out
FLAG 240 208 0
FLAG 240 128 5v
FLAG 0 352 0
FLAG 0 48 5V
SYMBOL res 176 384 R180
WINDOW 0 36 76 Left 2
WINDOW 3 36 40 Left 2
SYMATTR InstName R3
SYMATTR Value 1k
SYMBOL res 288 256 R90
WINDOW 0 0 56 VBottom 2
WINDOW 3 32 56 VTop 2
SYMATTR InstName R4
SYMATTR Value 59k
SYMBOL voltage -304 192 R0
WINDOW 123 32 90 Left 2
WINDOW 39 0 0 Left 0
WINDOW 3 24 44 Left 2
SYMATTR Value2 AC 0.0125 0
SYMATTR Value SINE()
SYMATTR InstName Vin
SYMBOL voltage -432 432 R0
WINDOW 123 0 0 Left 0
WINDOW 39 0 0 Left 0
SYMATTR InstName V2
SYMATTR Value 5
SYMBOL OpAmps\\UniversalOpAmp 240 176 R0
SYMATTR InstName U1
SYMBOL voltage -304 304 R0
WINDOW 123 0 0 Left 0
WINDOW 39 0 0 Left 0
SYMATTR InstName V1
SYMATTR Value 2.5
SYMBOL cap -80 176 R90
WINDOW 0 0 32 VBottom 2
WINDOW 3 32 32 VTop 2
SYMATTR InstName C1
SYMATTR Value 10µ
SYMBOL cap 144 400 R0
SYMATTR InstName C2
SYMATTR Value 10µ
SYMBOL res -16 64 R0
SYMATTR InstName R1
SYMATTR Value 48k
SYMBOL res -16 224 R0
SYMATTR InstName R2
SYMATTR Value 48k
TEXT -464 584 Left 2 !.ac dec 100 1 10000
