Version 4
SHEET 1 880 680
WIRE -96 0 -208 0
WIRE 48 16 16 16
WIRE 208 16 112 16
WIRE 464 16 208 16
WIRE -208 32 -208 0
WIRE 208 48 208 16
WIRE 320 96 320 64
WIRE -96 144 -96 0
WIRE 16 144 16 16
WIRE 16 144 -16 144
WIRE 48 144 16 144
WIRE 208 144 208 128
WIRE 208 144 112 144
WIRE 288 144 208 144
WIRE 464 176 464 16
WIRE 464 176 432 176
WIRE 480 176 464 176
WIRE 16 208 16 144
WIRE 288 208 240 208
WIRE 240 256 240 208
WIRE 16 320 16 288
FLAG 320 256 0
FLAG 320 64 5V
FLAG -208 368 0
FLAG -208 288 5V
FLAG -208 112 0
FLAG 480 176 Vout
IOPIN 480 176 Out
FLAG -416 352 0
FLAG -416 272 2.5V
FLAG 16 320 2.5V
FLAG 240 256 2.5V
SYMBOL voltage -208 272 R0
WINDOW 123 0 0 Left 0
WINDOW 39 0 0 Left 0
SYMATTR InstName V1
SYMATTR Value 5
SYMBOL res 0 128 R90
WINDOW 0 0 56 VBottom 2
WINDOW 3 32 56 VTop 2
SYMATTR InstName R1
SYMATTR Value 360K
SYMBOL res 192 32 R0
SYMATTR InstName R2
SYMATTR Value 720k
SYMBOL cap 112 0 R90
WINDOW 0 0 32 VBottom 2
WINDOW 3 32 32 VTop 2
SYMATTR InstName C1
SYMATTR Value 4.3n
SYMBOL cap 112 128 R90
WINDOW 0 0 32 VBottom 2
WINDOW 3 38 31 VTop 2
SYMATTR InstName C2
SYMATTR Value 4.3n
SYMBOL OpAmps\\LTC2067 320 176 R0
SYMATTR InstName U1
SYMBOL res 0 192 R0
SYMATTR InstName R3
SYMATTR Value 14.4k
SYMBOL voltage -208 16 R0
WINDOW 123 24 124 Left 2
WINDOW 39 0 0 Left 0
SYMATTR InstName V2
SYMATTR Value SINE()
SYMATTR Value2 AC 25m 0
SYMBOL voltage -416 256 R0
WINDOW 123 0 0 Left 0
WINDOW 39 0 0 Left 0
SYMATTR InstName V3
SYMATTR Value 2.5
TEXT -242 392 Left 2 !.ac dec 100 1 600
