Version 4
SHEET 1 880 680
WIRE 0 -160 -112 -160
WIRE 144 -144 112 -144
WIRE 304 -144 208 -144
WIRE 560 -144 304 -144
WIRE -112 -128 -112 -160
WIRE 304 -112 304 -144
WIRE 416 -64 416 -96
WIRE -112 -32 -112 -48
WIRE 0 -16 0 -160
WIRE 112 -16 112 -144
WIRE 112 -16 80 -16
WIRE 144 -16 112 -16
WIRE 304 -16 304 -32
WIRE 304 -16 208 -16
WIRE 384 -16 304 -16
WIRE 560 16 560 -144
WIRE 560 16 528 16
WIRE 576 16 560 16
WIRE 112 48 112 -16
WIRE 384 48 336 48
WIRE -112 64 -112 48
WIRE 336 96 336 48
WIRE 112 160 112 128
FLAG 416 96 0
FLAG 416 -96 3.3V
FLAG -112 208 0
FLAG -112 128 3.3V
FLAG 576 16 Vout
IOPIN 576 16 Out
FLAG -320 192 0
FLAG -320 112 1.65V
FLAG 336 96 1.65V
FLAG 112 160 1.65V
FLAG -112 64 0
SYMBOL voltage -112 112 R0
WINDOW 123 0 0 Left 0
WINDOW 39 0 0 Left 0
SYMATTR InstName V1
SYMATTR Value 3.3
SYMBOL res 96 -32 R90
WINDOW 0 0 56 VBottom 2
WINDOW 3 32 56 VTop 2
SYMATTR InstName R1
SYMATTR Value 48.1k
SYMBOL res 288 -128 R0
SYMATTR InstName R2
SYMATTR Value 96.2k
SYMBOL cap 208 -160 R90
WINDOW 0 0 32 VBottom 2
WINDOW 3 32 32 VTop 2
SYMATTR InstName C1
SYMATTR Value 33n
SYMBOL cap 208 -32 R90
WINDOW 0 0 32 VBottom 2
WINDOW 3 38 31 VTop 2
SYMATTR InstName C2
SYMATTR Value 33n
SYMBOL OpAmps\\LTC2067 416 16 R0
SYMATTR InstName U1
SYMBOL res 96 32 R0
SYMATTR InstName R3
SYMATTR Value 1.87k
SYMBOL voltage -112 -144 R0
WINDOW 123 -213 138 Left 2
WINDOW 39 0 0 Left 0
WINDOW 3 -306 97 Left 2
SYMATTR Value2 AC 12.5m 0
SYMATTR Value SINE(0 12.5m 366)
SYMATTR InstName V2
SYMBOL voltage -320 96 R0
WINDOW 123 0 0 Left 0
WINDOW 39 0 0 Left 0
SYMATTR InstName V3
SYMATTR Value 1.65
SYMBOL voltage -112 -48 R0
WINDOW 123 0 0 Left 0
WINDOW 39 0 0 Left 0
SYMATTR InstName V4
SYMATTR Value -200m
TEXT -352 264 Left 2 !.ac dec 100 1 1k
