Version 4
SHEET 1 1344 680
WIRE -144 48 -416 48
WIRE 80 48 -64 48
WIRE -64 128 -64 112
WIRE 1008 128 960 128
WIRE -96 144 -144 144
WIRE 1184 144 1072 144
WIRE 1232 144 1184 144
WIRE 80 160 80 48
WIRE 80 160 -32 160
WIRE 128 160 80 160
WIRE 1008 160 128 160
WIRE -496 176 -608 176
WIRE -416 176 -416 48
WIRE -416 176 -432 176
WIRE -384 176 -416 176
WIRE -272 176 -320 176
WIRE -96 176 -272 176
WIRE -608 192 -608 176
WIRE 1040 192 1040 176
WIRE -272 224 -272 176
WIRE -144 256 -144 144
WIRE -112 256 -144 256
WIRE 80 256 80 160
WIRE 80 256 -32 256
WIRE 960 256 960 128
WIRE 992 256 960 256
WIRE 1184 256 1184 144
WIRE 1184 256 1072 256
WIRE -144 272 -144 256
WIRE 960 272 960 256
WIRE -608 304 -608 272
WIRE -272 336 -272 304
WIRE -144 384 -144 352
WIRE 960 384 960 352
WIRE -608 400 -608 384
WIRE -736 544 -736 512
FLAG -272 336 0
FLAG -144 384 0
FLAG -608 400 0
FLAG -736 432 5V
FLAG -736 544 0
FLAG 128 160 Vout
IOPIN 128 160 Out
FLAG -64 192 0
FLAG -64 112 5v
FLAG 960 384 0
FLAG 1232 144 Vout
IOPIN 1232 144 Out
FLAG 1040 192 0
FLAG 1040 112 5v
SYMBOL cap -432 160 R90
WINDOW 0 0 32 VBottom 2
WINDOW 3 32 32 VTop 2
SYMATTR InstName C1
SYMATTR Value 100n
SYMBOL cap -320 160 R90
WINDOW 0 0 32 VBottom 2
WINDOW 3 32 32 VTop 2
SYMATTR InstName C2
SYMATTR Value 100n
SYMBOL res -288 208 R0
SYMATTR InstName R1
SYMATTR Value 6366
SYMBOL res -48 32 R90
WINDOW 0 0 56 VBottom 2
WINDOW 3 32 56 VTop 2
SYMATTR InstName R2
SYMATTR Value 6366
SYMBOL res -128 368 R180
WINDOW 0 36 76 Left 2
WINDOW 3 36 40 Left 2
SYMATTR InstName R3
SYMATTR Value 6366
SYMBOL res -16 240 R90
WINDOW 0 0 56 VBottom 2
WINDOW 3 32 56 VTop 2
SYMATTR InstName R4
SYMATTR Value 6366
SYMBOL voltage -608 176 R0
WINDOW 123 32 90 Left 2
WINDOW 39 0 0 Left 0
WINDOW 3 24 44 Left 2
SYMATTR Value2 AC 0.025 0
SYMATTR Value SINE()
SYMATTR InstName Vin
SYMBOL voltage -736 416 R0
WINDOW 123 0 0 Left 0
WINDOW 39 0 0 Left 0
SYMATTR InstName V2
SYMATTR Value 5
SYMBOL OpAmps\\UniversalOpAmp -64 160 R0
SYMATTR InstName U1
SYMBOL voltage -608 288 R0
WINDOW 123 0 0 Left 0
WINDOW 39 0 0 Left 0
SYMATTR InstName V1
SYMATTR Value -200m
SYMBOL res 976 368 R180
WINDOW 0 36 76 Left 2
WINDOW 3 36 40 Left 2
SYMATTR InstName R7
SYMATTR Value 100
SYMBOL res 1088 240 R90
WINDOW 0 0 56 VBottom 2
WINDOW 3 32 56 VTop 2
SYMATTR InstName R8
SYMATTR Value 9900
SYMBOL OpAmps\\UniversalOpAmp 1040 144 R0
SYMATTR InstName U2
TEXT -768 568 Left 2 !.ac dec 100 1 10000
