Version 4
SHEET 1 880 680
WIRE 240 144 240 128
WIRE 208 160 160 160
WIRE 384 176 272 176
WIRE 432 176 384 176
WIRE 208 192 -304 192
WIRE -304 208 -304 192
WIRE 160 272 160 160
WIRE 192 272 160 272
WIRE 384 272 384 176
WIRE 384 272 272 272
WIRE 160 288 160 272
WIRE -304 320 -304 288
WIRE 160 400 160 368
WIRE -304 416 -304 400
WIRE -432 560 -432 528
FLAG 160 400 0
FLAG -304 416 0
FLAG -432 448 5V
FLAG -432 560 0
FLAG 432 176 Vout
IOPIN 432 176 Out
FLAG 240 208 0
FLAG 240 128 5v
SYMBOL res 176 384 R180
WINDOW 0 36 76 Left 2
WINDOW 3 36 40 Left 2
SYMATTR InstName R3
SYMATTR Value 100
SYMBOL res 288 256 R90
WINDOW 0 0 56 VBottom 2
WINDOW 3 32 56 VTop 2
SYMATTR InstName R4
SYMATTR Value 9900
SYMBOL voltage -304 192 R0
WINDOW 123 32 90 Left 2
WINDOW 39 0 0 Left 0
WINDOW 3 24 44 Left 2
SYMATTR Value2 AC 0.025 0
SYMATTR Value SINE()
SYMATTR InstName Vin
SYMBOL voltage -432 432 R0
WINDOW 123 0 0 Left 0
WINDOW 39 0 0 Left 0
SYMATTR InstName V2
SYMATTR Value 5
SYMBOL OpAmps\\UniversalOpAmp 240 176 R0
SYMATTR InstName U1
SYMBOL voltage -304 304 R0
WINDOW 123 0 0 Left 0
WINDOW 39 0 0 Left 0
SYMATTR InstName V1
SYMATTR Value -200m
TEXT -464 584 Left 2 !.ac dec 100 1 10000
